GEOS-Chem Support Team
geos-chem-support@as.harvard.edu
13 Jan 2014

This directory contains input files for the standard simulation as of
the GEOS-Chem version 9-02.

This set of input files was used for the 1-month benchmark.

The restart file was obtained from the 1-year benchmark simulation
v9-02r-geos5-Run0.